@<TRIPOS>MOLECULE
RES
3 2 1 0 1
SMALL
NO_CHARGES
@<TRIPOS>CRYSIN
    5.5000     5.6400     6.3700    90.0000    90.0000    90.0000  1  1
@<TRIPOS>ATOM
       1 O            0.5000     0.1000     0.6000 O             1 RES     
       2 H            0.0600     0.0000     1.3700 H             1 RES     
       3 H            0.0000     0.6400     0.0000 H             1 RES     
@<TRIPOS>BOND
       1        2        1 1
       2        1        3 1
@<TRIPOS>SUBSTRUCTURE
       1 RES             1 RESIDUE    0 **** ROOT      0
